373

C    -2.6528824   9.2404752  -6.6673041
H    -2.0135860   9.4516489  -5.7921598
H    -3.6684419   9.4328505  -6.3730782
C    -2.6204920   7.7501723  -6.9797434
C    -2.6581359   7.2097593  -8.2538578
H    -2.5074629   7.8878750  -9.1305591
C    -2.7081433   5.8597751  -8.3808939
H    -2.7429456   5.5170683  -9.3823489
C    -2.8165929   4.9055491  -7.3807814
H    -2.8832412   3.8676203  -7.6470554
C    -2.8244478   5.4775266  -6.0648936
H    -2.8243563   4.8220120  -5.2516198
C    -2.7088733   6.8692360  -5.9022238
H    -2.6519207   7.3153663  -4.9382408
C    -3.1224190  11.3258498 -12.2937368
H    -2.0790946  11.6104560 -12.6212020
H    -3.1123858  10.8693254 -11.3159435
C    -3.6048713  10.3800003 -13.3144876
C    -3.6510368  10.6290566 -14.6497484
H    -3.4744856  11.5436878 -15.1368533
N    -4.1180064   9.5021080 -15.2745085
H    -4.3369255   9.4877765 -16.2840880
C    -4.6207873   8.5816430 -14.3995432
C    -5.3184129   7.3748906 -14.6731396
H    -5.5293381   7.0508952 -15.6732317
C    -5.6188428   6.5967130 -13.5179904
H    -6.0710847   5.6655070 -13.6368786
C    -5.0948611   6.9204230 -12.2404763
H    -5.2441479   6.1889628 -11.4251192
C    -4.3302729   8.1485194 -12.0769465
H    -3.8573543   8.3903429 -11.1216723
C    -4.1560262   9.0093975 -13.1700319
C    -7.3735741  10.7520922  -9.0855567
H    -7.1080039  11.2840808  -8.1955281
H    -8.4707217  10.5605896  -8.8502764
C    -6.6845621   9.3450160  -9.1719611
H    -7.2704776   8.6942470  -9.8377505
H    -5.7257415   9.5959676  -9.6807497
S    -6.6298643   8.5374669  -7.5970473
C    -6.0780048   6.8130954  -8.0269373
H    -6.8502174   6.2429458  -8.4823408
H    -5.2613190   6.8072386  -8.7009267
H    -5.7584807   6.3096341  -7.1335507
C   -11.9698508  10.1619324  -8.9933952
H   -10.9166255  10.5453778  -9.0858904
C   -11.9059294   9.2942927  -7.7109546
H   -12.8514201   8.7880532  -7.5036716
H   -11.1370635   8.5618955  -7.7240778
H   -11.7457954   9.9394167  -6.8366012
C   -12.2102287   9.2305363 -10.2518506
H   -13.1328077   8.6371881 -10.2792839
H   -12.3193260   9.8528089 -11.1894431
C   -10.9922249   8.3357484 -10.6006461
H   -11.1999573   7.9336396 -11.6156548
H   -10.0416719   8.9066270 -10.6295393
H   -10.8858299   7.5091889  -9.9184507
C   -12.6175745   9.5861831  -3.6944791
H   -12.4085142  10.1200221  -4.6029471
H   -12.4162659   8.5328903  -3.9532921
C   -14.1566823   9.6988107  -3.4459240
H   -14.3911363  10.6942331  -3.1686785
C   -14.9480765   9.5274140  -4.7694749
H   -14.9095504   8.5330704  -5.2486019
H   -16.0366890   9.6291862  -4.5727351
H   -14.6212385  10.2760956  -5.5012055
C   -14.6654915   8.7530588  -2.3282555
H   -14.0418391   8.7263624  -1.4218350
H   -15.6739571   8.8418196  -1.9729518
H   -14.7236168   7.7179727  -2.7333757
C    -6.7283827   6.8464997  -4.0415146
H    -6.4268841   7.8983571  -3.9724097
H    -6.2335096   6.3093303  -4.8306497
H    -7.8143188   6.8001150  -4.1385911
C    -5.1980131   1.6335068  -0.7770117
H    -4.8573856   1.9886861  -1.7614289
H    -5.4830449   0.5550779  -0.9062796
C    -6.4709371   2.4416616  -0.5822001
H    -6.3047353   3.4890775  -0.6516964
C    -7.4071060   2.1288409  -1.8173476
H    -8.3381422   2.7452466  -1.8694190
H    -6.8941755   2.3396166  -2.7489340
H    -7.5951173   1.0307615  -1.7670934
C    -7.1182236   2.1463579   0.7659216
H    -6.9072287   1.1328940   1.1406160
H    -6.6931688   2.8779039   1.4823496
H    -8.1851472   2.2570193   0.7321499
C    -1.8528151  -1.3196951  -5.4055038
H    -0.9884598  -0.7207828  -5.0865039
H    -1.5225639  -1.7224449  -6.3883851
C    -2.9179152  -0.2217437  -5.5260577
H    -3.8678170  -0.7564657  -5.7268049
H    -3.0584986   0.4070150  -4.6418895
C    -2.5842112   0.6102591  -6.7789923
O    -2.6729294   0.3355585  -7.9241910
N    -1.9317628   1.6911700  -6.5696931
H    -1.5437418   2.1736254  -7.3659393
H    -1.4914549   1.9024472  -5.6786319
C    -0.7698775  -5.2988336 -10.5190944
H    -0.9869976  -4.2778506 -10.2109524
H     0.1583330  -5.4988545  -9.9988169
C    -0.5407661  -5.3528758 -12.0586248
H    -0.3652654  -6.3853903 -12.3895025
C    -1.8094559  -5.0883132 -12.8667542
H    -1.5490030  -5.0039256 -13.9240349
H    -2.4985581  -5.9303916 -12.8561579
H    -2.2930692  -4.1464105 -12.5704996
C     0.6447458  -4.4651803 -12.4775326
H     0.6111472  -3.4728511 -12.0008076
H     1.5648767  -5.0007592 -12.1747067
H     0.6187000  -4.2161089 -13.5457974
C    -0.2108052  -8.8565052 -16.1426903
H     0.6827763  -9.3974377 -15.9425226
C    -0.3641424  -8.4766836 -17.6599115
H     0.5845592  -8.3876844 -18.2091453
H    -1.0157272  -9.1757503 -18.1758005
H    -0.8938971  -7.4854123 -17.7637532
C    -0.0114185  -7.4653859 -15.4145937
H    -0.9483712  -6.9579562 -15.5844781
H     0.1098788  -7.5782830 -14.3461713
C     1.1837802  -6.6887333 -16.0131609
H     1.3717413  -5.9574216 -15.2345719
H     2.0957220  -7.2826085 -16.0442560
H     1.0943237  -6.2318824 -17.0091700
C    -4.7465592  -6.2081864 -16.9951524
H    -5.5694542  -5.5399816 -17.3313528
C    -3.9743973  -5.4841564 -15.8839921
H    -3.2742407  -4.7657107 -16.3453077
H    -4.5890331  -4.9949043 -15.1037840
H    -3.2698126  -6.1550586 -15.3029420
C    -3.8421074  -6.5010645 -18.1663282
H    -4.4222805  -6.8764676 -18.9987915
H    -3.2350240  -5.6447696 -18.4268759
H    -3.0894522  -7.2843848 -18.0104416
C    -5.7898678  -2.8127333 -10.8471552
H    -6.8298375  -2.4022217 -10.8737700
H    -5.3424654  -2.2279966 -10.1088033
S    -4.8653821  -2.5850284 -12.4093735
H    -5.5829159  -1.5271703 -12.7956969
C    -6.8042846  -6.4688190  -6.3866490
H    -5.7977069  -6.9369870  -6.5395415
C    -7.4035686  -6.7865422  -4.9895649
H    -7.0983728  -6.0094589  -4.2740419
H    -8.5112395  -6.7455268  -5.0330039
H    -7.1281804  -7.8046344  -4.6628492
O    -7.5247527  -7.1804516  -7.3401120
H    -6.9006727  -7.1794306  -8.0613643
C    -6.4907618  -1.1029727  -4.1461483
H    -5.8514447  -0.5948068  -3.4253553
H    -6.0431312  -0.9945682  -5.1280715
O    -7.7957576  -0.6727002  -4.0634755
H    -8.3058914  -1.2839849  -4.6478202
C   -10.5739403   0.7625222  -6.2584142
H    -9.5408782   0.9073244  -6.1728441
H   -10.7452196   0.2157699  -7.2887317
C   -11.4180779   1.9841464  -6.1938082
C   -12.5265324   2.2949157  -6.8422037
H   -13.0970162   1.7047694  -7.6281439
N   -12.8872127   3.6677974  -6.5347756
H   -13.6889373   4.2039168  -6.9212166
C   -12.0383815   4.2403668  -5.6378680
C   -11.9487060   5.5066923  -4.9817805
H   -12.6670603   6.3054353  -5.2080272
C   -10.8895427   5.7091715  -4.0700695
H   -10.6856658   6.6555825  -3.6176308
C    -9.9211287   4.7496006  -3.8548180
H    -9.1601305   4.9352720  -3.0892250
C   -10.0319033   3.4647068  -4.5192897
H    -9.3376358   2.6660773  -4.2445728
C   -11.0583694   3.2089686  -5.4466396
C   -11.4864937  -4.6431423  -7.5553745
H   -11.0254090  -5.0796441  -6.6568270
H   -12.5239672  -4.3341859  -7.3692602
C   -11.5862687  -5.6890704  -8.6370055
O   -12.6048248  -6.2250396  -8.8885876
N   -10.4674403  -5.9338260  -9.2996493
H   -10.4958829  -6.1701930 -10.2905021
H    -9.6202894  -5.5669753  -8.8971115
C   -10.3436249  -1.2708896 -12.0299208
H   -10.8562196  -0.6328988 -11.2987423
H    -9.3075497  -1.0804314 -11.7338882
C   -10.4594724  -0.7994175 -13.5185827
C   -11.6269624  -0.9866286 -14.1709099
H   -12.4361185  -1.3662930 -13.5906355
C   -11.7218692  -0.6313880 -15.5347038
H   -12.5818377  -0.9333375 -16.0679308
C   -10.6191513  -0.0895634 -16.2717830
O   -10.7136364   0.1102929 -17.6146021
H   -11.5606522  -0.2342287 -17.9807792
C    -9.3971748   0.0870220 -15.5795626
H    -8.5508469   0.4338630 -16.1554001
C    -9.3547949  -0.2463156 -14.2041045
H    -8.3944856  -0.1758112 -13.7442808
C    -8.9551486  -3.1506760 -18.0293727
H    -9.4225059  -2.6334481 -17.1590849
C    -7.4336888  -3.2412461 -17.8528469
H    -6.9789951  -2.2306059 -17.6602676
H    -7.1617879  -3.9268213 -17.0244589
H    -6.9100658  -3.6411424 -18.7401561
C    -9.2039713  -2.2889336 -19.2449633
H   -10.2685649  -2.4530794 -19.4281206
H    -9.0007906  -1.2992010 -18.8634513
H    -8.5520824  -2.5339437 -20.1297984
C    -6.6631525  -3.6877073 -23.9033223
H    -6.1944113  -3.2411638 -24.8087913
H    -7.3903397  -3.0109304 -23.4568233
C    -5.5817003  -3.7542056 -22.8861477
C    -4.3227194  -4.2525309 -23.2364796
H    -4.1122921  -4.5636992 -24.2816835
C    -3.2912454  -4.2226652 -22.3095615
H    -2.2948691  -4.5193225 -22.5420664
C    -3.6124134  -3.8880380 -20.9590700
H    -2.7638198  -3.9724541 -20.2956936
C    -4.8798783  -3.4498040 -20.5783486
H    -5.0257975  -3.1347965 -19.5587943
C    -5.8652266  -3.3165876 -21.5857192
H    -6.7980513  -2.8239185 -21.3783702
C   -11.7465949   4.1344256 -12.1464018
H   -11.0375826   4.9179773 -11.7251089
H   -11.3848094   3.1204324 -11.8056647
C   -11.7293945   4.1113619 -13.7084838
H   -12.6395533   3.9538131 -14.2259835
C   -11.2263899   5.4718856 -14.2482524
H   -10.2782762   5.3820315 -14.7247560
H   -11.9440398   5.9161571 -14.9213567
H   -11.0962948   6.2132257 -13.4885202
C   -10.8715214   2.9599082 -14.2047488
H   -10.5692295   3.1089748 -15.2394257
H    -9.9525395   2.9227027 -13.5952073
H   -11.4045879   2.0054433 -14.1370588
C     2.8143554  -2.2918158 -23.3806438
H     3.5527880  -3.0976562 -23.4875558
H     2.7664999  -2.1671759 -22.2776634
C     1.4483763  -2.5736708 -23.9271192
H     0.9256919  -1.6317366 -24.1328896
C     1.3849182  -3.3895367 -25.1869667
H     1.8411134  -4.4013047 -25.0191261
H     0.3184009  -3.5357584 -25.4230990
H     1.9140216  -2.8706265 -26.0163070
C     0.5606099  -3.3119810 -22.8487213
H    -0.4309592  -3.4674806 -23.2320419
H     0.8546656  -4.3370558 -22.6306140
H     0.4439327  -2.7783907 -21.8978028
C    -1.0951946   3.9221855 -18.8409219
H    -0.2061839   3.4082949 -18.5095183
H    -1.5593676   4.5153575 -18.0861806
C    -2.0691557   2.8911317 -19.3396172
C    -3.4096821   2.8345776 -19.0948629
H    -3.9080980   3.5532051 -18.4697050
N    -3.9338535   1.7146843 -19.6218771
H    -4.9126823   1.4996813 -19.6600875
C    -2.9528255   1.0748919 -20.4050962
C    -2.9799701  -0.0445298 -21.2341725
H    -3.9689864  -0.5122582 -21.4139463
C    -1.7675008  -0.4992118 -21.8160185
H    -1.7625888  -1.3538770 -22.4572701
C    -0.5606449   0.1667106 -21.5412701
H     0.3036380  -0.2521183 -21.9930173
C    -0.5420028   1.2295010 -20.6575585
H     0.3801829   1.7005289 -20.3482020
C    -1.7844039   1.7409967 -20.1141314
C     2.7065227  -0.6287581 -18.8709971
H     2.5291472  -1.0358814 -19.8622563
H     1.8281366  -0.0046710 -18.5694890
C     2.8602892  -1.8271154 -17.9293812
H     2.8754813  -1.5686606 -16.7983090
H     3.8244983  -2.2891076 -18.1463037
C     1.8311057  -2.8744655 -18.1819240
H     2.3694543  -3.8915554 -17.9600423
H     1.4152022  -2.9432422 -19.1284458
C     0.5154563  -2.4042093 -17.2931920
H     0.8068503  -2.3040753 -16.2879595
H    -0.0719955  -3.2791735 -17.3690396
N    -0.2131032  -1.2749988 -18.0333763
H     0.3234785  -0.8066092 -18.7008013
C    -1.3535084  -0.7700953 -17.7025859
H    -1.8303732   0.1389682 -18.0243046
C    -2.2275084  -1.4797224 -16.9538445
H    -2.2336540  -2.4467455 -16.6153164
C    -3.4004192  -0.8410134 -16.4336285
C    -4.6254460  -1.8269710 -16.1745500
H    -4.7783145  -2.5819889 -16.9536798
H    -5.3122247  -1.1861909 -16.3798232
H    -4.4622208  -2.3086765 -15.2163028
C    -3.3369127   0.3293797 -15.7290163
H    -2.4624441   0.8918688 -15.4522779
C    -4.5746615   1.0047204 -15.4894938
H    -5.4748300   0.7393407 -16.1542346
C    -4.7507804   1.8847282 -14.3374486
H    -3.9395918   1.6291009 -13.6393905
C    -5.8477219   2.5465027 -13.8027279
C    -7.0147338   2.8973402 -14.6268265
H    -6.8370800   3.5864829 -15.4514160
H    -7.6607043   3.2780330 -14.0384798
H    -7.3438156   1.9998624 -15.0835879
C    -5.9235213   2.9750956 -12.4314922
H    -4.9078888   3.4175835 -12.0363845
C    -7.0110151   2.4504127 -11.9343169
H    -7.5399647   1.6448532 -12.4710092
C    -7.4562670   2.6536488 -10.5758236
C    -6.8876061   1.8690711  -9.4223549
C    -6.8311805   0.3102340  -9.8832976
H    -5.7838778   0.4944691 -10.5719841
H    -7.8487027  -0.0882343 -10.0353614
H    -6.6090722  -0.3481996  -8.8143962
C    -5.4939804   2.2266289  -9.0678430
H    -5.5524995   2.3297116  -7.9866301
H    -5.0268999   3.1526974  -9.5109519
H    -4.6749451   1.5874271  -9.6598231
C    -7.8157993   1.9856039  -8.2213283
H    -7.3423414   1.3880050  -7.4545570
H    -8.8949378   1.5579966  -8.4609344
C    -8.0144556   3.4724922  -7.9170163
H    -7.0541260   4.0169926  -8.0265096
H    -8.6940175   3.3318428  -6.9917337
C    -8.8568932   4.0527432  -9.1060714
H    -8.9585963   5.1938240  -8.9696694
H    -9.8884524   3.5206302  -9.1432613
C    -8.1407770   3.8500901 -10.3623990
C    -8.2422752   4.8268669 -11.4241205
H    -8.7358476   4.3992999 -12.3052077
H    -7.2061735   5.1137359 -11.8482320
H    -8.7810891   5.7735099 -11.1307269
C     5.7446880  -4.0946851 -13.5083255
H     6.0355456  -5.0002448 -13.9238743
H     5.3298234  -4.3556127 -12.4906356
C     4.7133402  -3.4782727 -14.3885325
H     5.2002867  -2.9318607 -15.2388680
C     3.6843128  -4.5623756 -14.8368211
H     2.8451912  -4.2110720 -15.4530105
H     4.2591781  -5.2788857 -15.3673933
H     3.3655263  -5.1342707 -13.9790195
C     3.8419907  -2.4242371 -13.5963429
H     3.0679048  -1.9922536 -14.2054084
H     3.3831079  -2.9855704 -12.7864011
H     4.4483864  -1.6289268 -13.1580300
C     2.5425622   1.4257668 -14.1122721
H     2.6447399   0.4085956 -14.4453648
H     2.7132332   1.3890477 -13.0449025
C     1.0905811   1.8644871 -14.4614780
H     0.9341926   2.9119693 -14.2288590
C     0.9347497   1.7536505 -15.9756051
H     1.3487945   2.6247479 -16.4289219
H     1.4503263   0.8820000 -16.3554392
H    -0.1380067   1.8303497 -16.1558084
C     0.1273843   0.7933470 -13.8149150
H     0.2252996   0.7204812 -12.7528081
H    -0.8991676   1.0851920 -13.9767979
H     0.2069803  -0.1742414 -14.3544051
C    -1.7039982   6.4410431 -14.8482897
H    -1.4117285   6.9403524 -13.9334410
H    -2.7287895   6.7760792 -15.1125044
C    -1.7069688   4.9647400 -14.5691665
H    -0.8764468   4.4262021 -14.9885050
C    -1.9049478   4.6553042 -13.1403342
H    -2.7959867   5.1838652 -12.7459619
H    -2.0030857   3.5700917 -13.0524862
H    -1.0229765   4.9795543 -12.6208592
C    -2.8797046   4.3351616 -15.2699164
H    -2.9249508   4.7811386 -16.2773419
H    -2.7662603   3.2594088 -15.3205291
H    -3.8000545   4.5690317 -14.6870252
O    -2.2541104   1.0764222 -10.3363728
H    -2.5082761   0.9535368  -9.3980529
H    -2.1425253   0.1688856 -10.6287027
O    -6.4761801   1.2478509 -20.9764029
H    -7.0095927   0.4926373 -21.3364082
H    -6.7861639   1.9315504 -21.6297979
O   -15.2748264   4.7790975  -8.0921118
H   -15.1119351   5.1133058  -9.0200923
H   -15.3651734   3.8220232  -8.3452254
O    -0.5556882  -5.4373998 -19.8720471
H     0.4367067  -5.6267204 -20.0111758
H    -0.8502251  -6.2697937 -20.3490894
